Version 4.1
SHEET 1 880 680
WIRE 256 112 224 112
WIRE 368 112 336 112
WIRE 160 160 144 160
WIRE 64 224 64 160
WIRE 224 240 224 208
WIRE 368 240 368 192
WIRE 64 336 64 304
FLAG 224 240 0
FLAG 368 240 0
FLAG 64 336 0
SYMBOL npn 160 112 R0
SYMATTR InstName Q1
SYMATTR Value BC847B
SYMBOL voltage 64 208 R0
WINDOW 123 0 0 Left 0
WINDOW 39 0 0 Left 0
SYMATTR InstName VBE
SYMATTR Value 5
SYMBOL voltage 368 96 R0
WINDOW 123 0 0 Left 0
WINDOW 39 0 0 Left 0
SYMATTR InstName VCE
SYMATTR Value 5
SYMBOL res 352 96 R90
WINDOW 0 0 56 VBottom 2
WINDOW 3 32 56 VTop 2
SYMATTR InstName RC
SYMATTR Value 1k
SYMBOL res 160 144 R90
WINDOW 0 0 56 VBottom 2
WINDOW 3 32 56 VTop 2
SYMATTR InstName RB
SYMATTR Value 1k
TEXT 264 312 Left 2 !.dc VBE 0 5 0.01 VCE 0 5 0.5
