Version 4.1
SHEET 1 880 680
WIRE 176 64 144 64
WIRE 288 64 240 64
WIRE 288 96 288 64
WIRE 144 128 144 64
WIRE 288 208 288 176
WIRE 288 208 144 208
WIRE 144 224 144 208
FLAG 144 224 0
SYMBOL diode 176 80 R270
WINDOW 0 32 32 VTop 2
WINDOW 3 0 32 VBottom 2
SYMATTR InstName D1
SYMATTR Value BZX84C6V2L
SYMBOL voltage 144 112 R0
WINDOW 123 0 0 Left 0
WINDOW 39 0 0 Left 0
SYMATTR InstName V1
SYMATTR Value 5
SYMBOL res 272 80 R0
SYMATTR InstName R1
SYMATTR Value 100
TEXT 160 232 Left 2 !.dc V1 -10 5 0.1
