Version 4.1
SHEET 1 880 1044
WIRE 176 -64 112 -64
WIRE 320 -64 256 -64
WIRE 192 128 192 96
WIRE 0 144 -80 144
WIRE 112 144 112 -64
WIRE 112 144 80 144
WIRE 160 144 112 144
WIRE 320 160 320 -64
WIRE 320 160 224 160
WIRE 384 160 320 160
WIRE 512 160 384 160
WIRE -368 176 -368 128
WIRE -208 176 -208 128
WIRE 160 176 112 176
WIRE -80 192 -80 144
WIRE 192 224 192 192
WIRE -368 288 -368 256
WIRE -208 288 -208 256
WIRE 112 288 112 176
WIRE 112 288 -96 288
WIRE -96 432 -96 288
WIRE -32 432 -96 432
WIRE 64 432 -32 432
WIRE 128 432 64 432
WIRE 288 432 192 432
WIRE 512 432 512 160
WIRE 512 432 368 432
WIRE -32 464 -32 432
WIRE 64 464 64 432
WIRE -32 576 -32 528
WIRE 16 576 -32 576
WIRE 64 576 64 544
WIRE 64 576 16 576
WIRE 16 608 16 576
FLAG -368 288 0
FLAG 384 160 Vout
FLAG -208 288 0
FLAG -368 128 VDD-
FLAG -208 128 VDD+
FLAG 192 96 VDD+
FLAG 192 224 VDD-
FLAG 16 608 0
FLAG -80 192 0
SYMBOL voltage -368 160 R0
WINDOW 0 -82 27 Left 2
WINDOW 3 -60 97 Left 2
WINDOW 123 0 0 Left 0
WINDOW 39 0 0 Left 0
SYMATTR InstName VDD-
SYMATTR Value -15
SYMBOL voltage -208 160 R0
WINDOW 0 -82 27 Left 2
WINDOW 3 -60 97 Left 2
WINDOW 123 0 0 Left 0
WINDOW 39 0 0 Left 0
SYMATTR InstName VDD+
SYMATTR Value 15
SYMBOL cap -48 464 R0
SYMATTR InstName C2
SYMATTR Value 1nF
SYMBOL res 272 -80 R90
WINDOW 0 0 56 VBottom 2
WINDOW 3 32 56 VTop 2
SYMATTR InstName Rf
SYMATTR Value 2.005k
SYMBOL res 96 128 R90
WINDOW 0 0 56 VBottom 2
WINDOW 3 32 56 VTop 2
SYMATTR InstName R1
SYMATTR Value 1k
SYMBOL OpAmps\\LT1363 192 96 R0
SYMATTR InstName U1
SYMBOL res 48 448 R0
SYMATTR InstName R2
SYMATTR Value 3183.0988
SYMBOL cap 192 416 R90
WINDOW 0 0 32 VBottom 2
WINDOW 3 32 32 VTop 2
SYMATTR InstName C1
SYMATTR Value 1nF
SYMBOL res 384 416 R90
WINDOW 0 0 56 VBottom 2
WINDOW 3 32 56 VTop 2
SYMATTR InstName R3
SYMATTR Value 3183.0988
TEXT -448 632 Left 2 !.tran 0 120u 20u 0.01u uic
