Version 4.1
SHEET 1 2672 1412
WIRE -32 -320 -112 -320
WIRE 224 -320 48 -320
WIRE 304 -320 224 -320
WIRE 480 -320 384 -320
WIRE 224 -240 224 -320
WIRE 320 -208 -576 -208
WIRE 480 -208 480 -320
WIRE 480 -208 320 -208
WIRE 480 -144 480 -208
WIRE -736 -128 -736 -208
WIRE -496 -16 -496 -48
WIRE 480 -16 480 -80
WIRE -576 0 -576 -208
WIRE -528 0 -576 0
WIRE -336 16 -464 16
WIRE -736 32 -736 -48
WIRE -528 32 -736 32
WIRE -944 48 -944 -48
WIRE -736 80 -736 32
WIRE -496 80 -496 48
WIRE -336 96 -336 16
WIRE -224 96 -336 96
WIRE -144 96 -224 96
WIRE -144 112 -160 112
WIRE -48 128 -80 128
WIRE 16 128 -48 128
WIRE -48 160 -48 128
WIRE -48 160 -128 160
WIRE -160 176 -160 112
WIRE -48 176 -160 176
WIRE 224 176 224 -240
WIRE -944 192 -944 128
WIRE -128 192 -128 160
WIRE -128 192 -176 192
WIRE -176 208 -176 192
WIRE -144 208 -176 208
WIRE -496 224 -496 192
WIRE -736 240 -736 160
WIRE -528 240 -736 240
WIRE -224 256 -464 256
WIRE -144 256 -224 256
WIRE -48 256 -48 176
WIRE -48 256 -80 256
WIRE 0 256 -48 256
WIRE 160 256 160 224
WIRE 160 256 0 256
WIRE -528 272 -576 272
WIRE -736 288 -736 240
WIRE -496 320 -496 288
WIRE 224 336 224 272
WIRE -576 384 -576 272
WIRE -736 448 -736 368
WIRE -576 496 -576 384
WIRE 320 496 320 -208
WIRE 320 496 -576 496
FLAG -496 80 VCC
FLAG -496 -48 0
FLAG -496 320 VCC
FLAG -496 192 0
FLAG -736 -208 VCC
FLAG -736 448 0
FLAG -576 -208 TH
FLAG -576 384 TR
FLAG -944 192 0
FLAG -944 -48 VCC
FLAG 224 336 0
FLAG -224 256 S
FLAG -224 96 R
FLAG 16 128 Q
FLAG 0 256 Q_bar
FLAG 224 -240 DIS
FLAG -112 -320 VCC
FLAG 480 -16 0
SYMBOL res -752 -144 R0
SYMATTR InstName R4
SYMATTR Value 9k
SYMBOL res -752 64 R0
SYMATTR InstName R5
SYMATTR Value 9k
SYMBOL res -752 272 R0
SYMATTR InstName R6
SYMATTR Value 9k
SYMBOL voltage -944 32 R0
WINDOW 123 0 0 Left 0
WINDOW 39 0 0 Left 0
SYMATTR InstName VCC
SYMATTR Value 5
SYMBOL Digital\\or -112 48 R0
WINDOW 3 -8 36 Invisible 2
SYMATTR Value Vhigh=5 Vlow=0 Ref=1.0
SYMATTR InstName A1
SYMBOL Digital\\or -112 176 R0
WINDOW 0 -3 118 Left 2
WINDOW 3 -3 146 Invisible 2
SYMATTR InstName A2
SYMATTR Value Vhigh=5 Vlow=0 Ref=1.0
SYMBOL res 64 -336 R90
WINDOW 0 0 56 VBottom 2
WINDOW 3 32 56 VTop 2
SYMATTR InstName R1
SYMATTR Value 360.673
SYMBOL OpAmps\\LT1360 -496 16 M180
SYMATTR InstName U1
SYMBOL OpAmps\\LT1360 -496 256 M180
SYMATTR InstName U3
SYMBOL npn 160 176 R0
SYMATTR InstName Q1
SYMATTR Value 2N3904
SYMBOL res 400 -336 R90
WINDOW 0 0 56 VBottom 2
WINDOW 3 32 56 VTop 2
SYMATTR InstName R2
SYMATTR Value 180.33
SYMBOL cap 464 -144 R0
SYMATTR InstName C1
SYMATTR Value 1000nF
TEXT -1000 584 Left 2 !.tran 0 3ms 0 10u
