Version 4.1
SHEET 1 2672 1412
WIRE 1968 -1088 1888 -1088
WIRE 2096 -1088 2048 -1088
WIRE 1888 -1056 1888 -1088
WIRE 1840 -1040 1792 -1040
WIRE 1792 -1008 1792 -1040
WIRE 1888 -944 1888 -976
WIRE 1840 -896 1840 -992
WIRE 1840 -784 1840 -816
WIRE -1280 -608 -1296 -608
WIRE -1184 -576 -1216 -576
WIRE -1120 -576 -1184 -576
WIRE -1184 -544 -1184 -576
WIRE -1184 -544 -1264 -544
WIRE -1296 -528 -1296 -608
WIRE -1264 -512 -1264 -544
WIRE -1312 -480 -1312 -512
WIRE -1280 -480 -1312 -480
WIRE -1184 -448 -1184 -528
WIRE -1184 -448 -1216 -448
WIRE -1120 -448 -1184 -448
WIRE 208 -416 112 -416
WIRE 384 -416 288 -416
WIRE 496 -416 384 -416
WIRE 1216 -416 576 -416
WIRE 1248 -416 1216 -416
WIRE 1408 -416 1312 -416
WIRE 1408 -368 1408 -416
WIRE 384 -320 384 -416
WIRE 1168 -320 384 -320
WIRE 1216 -256 1216 -416
WIRE 1216 -256 -576 -256
WIRE 1472 -256 1216 -256
WIRE -576 -208 -576 -256
WIRE -736 -128 -736 -208
WIRE -496 -16 -496 -48
WIRE -576 0 -576 -192
WIRE -528 0 -576 0
WIRE -336 16 -464 16
WIRE -736 32 -736 -48
WIRE -528 32 -736 32
WIRE -944 48 -944 -48
WIRE 1168 48 1168 -320
WIRE -736 80 -736 32
WIRE -496 80 -496 48
WIRE -336 96 -336 16
WIRE -224 96 -336 96
WIRE -144 96 -224 96
WIRE -128 128 -176 128
WIRE 48 128 -32 128
WIRE 1120 128 960 128
WIRE -144 176 -144 96
WIRE -128 176 -144 176
WIRE 16 176 -16 176
WIRE -944 192 -944 128
WIRE 1168 208 1168 144
WIRE -496 224 -496 192
WIRE -224 224 -272 224
WIRE -176 224 -176 128
WIRE -176 224 -224 224
WIRE -736 240 -736 160
WIRE -528 240 -736 240
WIRE -128 240 -128 208
WIRE -272 256 -272 224
WIRE -272 256 -464 256
WIRE -528 272 -576 272
WIRE 16 272 16 176
WIRE 960 272 960 128
WIRE 960 272 16 272
WIRE -736 288 -736 240
WIRE -496 320 -496 288
WIRE -576 384 -576 272
WIRE -736 448 -736 368
WIRE -576 496 -576 384
WIRE 1472 496 1472 -256
WIRE 1472 496 -576 496
FLAG -496 80 VCC
FLAG -496 -48 0
FLAG -496 320 VCC
FLAG -496 192 0
FLAG -736 -208 VCC
FLAG -736 448 0
FLAG -576 -208 TH
FLAG -576 384 TR
FLAG 1168 -320 DIS
FLAG 2096 -1088 VCC
FLAG 1888 -944 0
FLAG 1792 -1008 0
FLAG 1840 -784 0
FLAG 112 -416 VCC
FLAG -944 192 0
FLAG -944 -48 VCC
FLAG 1168 208 0
FLAG 1408 -368 0
FLAG -224 224 S
FLAG -224 96 R
FLAG -1120 -576 Q
FLAG -1120 -448 Q_bar
FLAG -128 240 0
SYMBOL OpAmps\\LT1363 -496 80 M180
SYMATTR InstName U2
SYMBOL OpAmps\\LT1363 -496 320 M180
SYMATTR InstName U3
SYMBOL res -752 -144 R0
SYMATTR InstName R4
SYMATTR Value 9k
SYMBOL res -752 64 R0
SYMATTR InstName R5
SYMATTR Value 9k
SYMBOL res -752 272 R0
SYMATTR InstName R6
SYMATTR Value 9k
SYMBOL nmos 1120 48 R0
WINDOW 123 62 98 Left 2
SYMATTR Value2 L=1u W=1u
SYMATTR InstName M1
SYMATTR Value CMOSN
SYMBOL sw 1888 -1072 R0
SYMATTR InstName S1
SYMATTR Value miswitch
SYMBOL res 2064 -1104 R90
WINDOW 0 0 56 VBottom 2
WINDOW 3 32 56 VTop 2
SYMATTR InstName R8
SYMATTR Value 1k
SYMBOL voltage 1840 -912 R0
WINDOW 123 0 0 Left 0
WINDOW 39 0 0 Left 0
SYMATTR InstName V1
SYMATTR Value PULSE(0 5 0.2ms 1ns 1ns 0.1m 0 1)
SYMBOL res 592 -432 R90
WINDOW 0 0 56 VBottom 2
WINDOW 3 32 56 VTop 2
SYMATTR InstName R7
SYMATTR Value 36067.37
SYMBOL res 304 -432 R90
WINDOW 0 0 56 VBottom 2
WINDOW 3 32 56 VTop 2
SYMATTR InstName R9
SYMATTR Value 72134.752
SYMBOL cap 1312 -432 R90
WINDOW 0 0 32 VBottom 2
WINDOW 3 32 32 VTop 2
SYMATTR InstName C1
SYMATTR Value 1nF
SYMBOL voltage -944 32 R0
WINDOW 123 0 0 Left 0
WINDOW 39 0 0 Left 0
SYMATTR InstName VCC
SYMATTR Value 5
SYMBOL Digital\\or -1248 -656 R0
WINDOW 3 -8 36 Left 2
SYMATTR Value Vhigh=5 Vlow=0 Ref=1.0
SYMATTR InstName A1
SYMBOL Digital\\or -1248 -528 R0
WINDOW 0 -3 118 Left 2
WINDOW 3 -3 146 Left 2
SYMATTR InstName A2
SYMATTR Value Vhigh=5 Vlow=0 Ref=1.0
SYMBOL Digital\\srflop -80 80 R0
WINDOW 3 -40 28 Left 2
SYMATTR InstName A3
SYMATTR Value Vhigh=5 Vlow=0 Ref=2
TEXT -1000 616 Left 2 !.inc tsmc018.lib
TEXT -1000 584 Left 2 !.tran 0 2ms 0 10u
TEXT 1824 -704 Left 2 !.model miswitch SW(Ron=1. Roff=1MEG Vt=2.5V Vh=0 Lser=0 Vser=0)
