Version 4.1
SHEET 1 912 1044
WIRE 416 80 416 32
WIRE 192 128 192 80
WIRE 416 128 416 96
WIRE 96 144 16 144
WIRE 160 144 96 144
WIRE 368 160 224 160
WIRE 160 176 128 176
WIRE 416 208 416 176
WIRE 544 208 416 208
WIRE 656 208 544 208
WIRE 192 224 192 192
WIRE 416 224 416 208
WIRE 16 240 16 144
WIRE 656 240 656 208
WIRE 544 256 544 208
WIRE 848 256 848 208
WIRE 128 336 128 176
WIRE 416 336 416 304
WIRE 416 336 128 336
WIRE 16 352 16 320
WIRE 416 384 416 336
WIRE 544 384 544 320
WIRE 656 384 656 320
WIRE 656 384 544 384
WIRE 848 384 848 336
WIRE 544 400 544 384
WIRE 416 512 416 464
FLAG 416 32 Vin
FLAG 96 144 Vref
FLAG 416 512 0
FLAG 544 208 Vout
FLAG 848 208 Vin
FLAG 848 384 0
FLAG 16 352 0
FLAG 544 400 0
FLAG 192 80 Vin
FLAG 192 224 0
SYMBOL res 400 368 R0
SYMATTR InstName R1
SYMATTR Value 1Mega
SYMBOL res 400 208 R0
SYMATTR InstName R2
SYMATTR Value {Rvar}
SYMBOL voltage 848 240 R0
WINDOW 123 0 0 Left 0
WINDOW 39 0 0 Left 0
SYMATTR InstName Vin
SYMATTR Value 0
SYMBOL voltage 16 224 R0
WINDOW 123 0 0 Left 0
WINDOW 39 0 0 Left 0
SYMATTR InstName Vref
SYMATTR Value 3
SYMBOL cap 528 256 R0
SYMATTR InstName C1
SYMATTR Value 1µ
SYMBOL OpAmps\\LT1490 192 96 R0
SYMATTR InstName U1
SYMBOL current 656 240 R0
WINDOW 123 0 0 Left 0
WINDOW 39 0 0 Left 0
SYMATTR InstName I1
SYMATTR Value 200µ
SYMBOL pmos4 368 80 R0
WINDOW 38 56 100 Left 2
SYMATTR InstName M1
SYMATTR Value W=10u L=1u
SYMATTR SpiceModel CMOSP
TEXT 16 592 Left 2 !.inc tsmc018.lib
TEXT 16 624 Left 2 !.dc Vin 5 16 10m
TEXT 16 656 Left 2 !.step param Rvar 1Mega 2.33Mega 0.11Mega
