Version 4.1
SHEET 1 880 680
WIRE 336 48 288 48
WIRE 336 80 336 48
WIRE 464 80 416 80
WIRE 464 112 464 80
WIRE 208 128 208 48
WIRE 256 128 208 128
WIRE 208 208 160 208
WIRE 160 256 160 208
WIRE 256 288 256 224
FLAG 160 256 0
FLAG 256 288 0
FLAG 464 112 0
SYMBOL nmos 208 128 R0
SYMATTR InstName M1
SYMATTR Value SIJA72ADP
SYMBOL voltage 320 80 R270
WINDOW 0 32 56 VTop 2
WINDOW 3 -32 56 VBottom 2
WINDOW 123 0 0 Left 0
WINDOW 39 0 0 Left 0
SYMATTR InstName V1
SYMATTR Value 1
SYMBOL res 304 32 R90
WINDOW 0 0 56 VBottom 2
WINDOW 3 32 56 VTop 2
SYMATTR InstName R1
SYMATTR Value 1k
TEXT 136 312 Left 2 !.op
