Version 4.1
SHEET 1 880 680
WIRE 304 -16 208 -16
WIRE 416 -16 384 -16
WIRE 416 0 416 -16
WIRE 208 16 208 -16
WIRE -80 80 -96 80
WIRE 16 80 0 80
WIRE -96 112 -96 80
WIRE 208 112 208 96
WIRE 336 112 208 112
WIRE 512 112 336 112
WIRE 336 128 336 112
WIRE 16 160 16 80
WIRE -16 176 -96 176
WIRE 144 192 48 192
WIRE 160 192 144 192
WIRE -16 208 -32 208
WIRE -96 224 -96 176
WIRE 336 224 336 208
WIRE 208 240 208 208
WIRE 16 256 16 224
WIRE -96 336 -96 304
WIRE 16 368 16 336
WIRE -32 416 -32 208
WIRE 512 416 512 112
WIRE 512 416 -32 416
FLAG 416 0 0
FLAG 336 224 0
FLAG 208 240 0
FLAG 144 192 VG
FLAG -96 336 0
FLAG -96 112 0
FLAG 16 368 0
SYMBOL nmos 160 112 R0
WINDOW 3 -14 102 Left 2
SYMATTR InstName M1
SYMATTR Value SQJ844AEP_Q2
SYMBOL res 192 0 R0
SYMATTR InstName RD
SYMATTR Value 2k
SYMBOL voltage 288 -16 R270
WINDOW 0 32 56 VTop 2
WINDOW 3 -32 56 VBottom 2
WINDOW 123 0 0 Left 0
WINDOW 39 0 0 Left 0
SYMATTR InstName VDD
SYMATTR Value 10
SYMBOL res 320 112 R0
SYMATTR InstName RL
SYMATTR Value 2k
SYMBOL OpAmps\\OP747 16 128 R0
SYMATTR InstName U1
SYMBOL voltage -96 208 R0
WINDOW 123 0 0 Left 0
WINDOW 39 0 0 Left 0
SYMATTR InstName VD
SYMATTR Value 5
SYMBOL voltage 16 80 R90
WINDOW 0 -32 56 VBottom 2
WINDOW 3 32 56 VTop 2
WINDOW 123 0 0 Left 0
WINDOW 39 0 0 Left 0
SYMATTR InstName VOP+
SYMATTR Value 10
SYMBOL voltage 16 240 R0
WINDOW 123 0 0 Left 0
WINDOW 39 0 0 Left 0
SYMATTR InstName VOP-
SYMATTR Value -10
TEXT 288 296 Left 2 ;.op
TEXT 288 320 Left 2 !.dc VD 0 20m 1u
