Version 4.1
SHEET 1 880 680
WIRE 288 -16 176 -16
WIRE 400 -16 368 -16
WIRE 176 16 176 -16
WIRE 400 16 400 -16
WIRE 176 128 176 96
WIRE 416 128 176 128
WIRE 176 144 176 128
WIRE 416 144 416 128
WIRE 112 208 32 208
WIRE 128 208 112 208
WIRE 32 240 32 208
WIRE 176 240 176 224
WIRE 416 240 416 224
WIRE 32 336 32 320
FLAG 176 240 0
FLAG 176 128 VD
FLAG 400 16 0
FLAG 32 336 0
FLAG 416 240 0
FLAG 112 208 VG
SYMBOL nmos 128 128 R0
SYMATTR InstName M1
SYMATTR Value SQJ910AEP_Q2
SYMBOL voltage 272 -16 R270
WINDOW 0 32 56 VTop 2
WINDOW 3 -32 56 VBottom 2
WINDOW 123 0 0 Left 0
WINDOW 39 0 0 Left 0
SYMATTR InstName VDD
SYMATTR Value 10
SYMBOL voltage 32 224 R0
WINDOW 123 0 0 Left 0
WINDOW 39 0 0 Left 0
WINDOW 3 10 101 Left 2
SYMATTR InstName Vin
SYMATTR Value SINE(2.01 1m 30)
SYMBOL res 160 0 R0
SYMATTR InstName RD
SYMATTR Value 2k
SYMBOL res 400 128 R0
SYMATTR InstName RL
SYMATTR Value 2k
TEXT 224 280 Left 2 ;.op
TEXT 224 304 Left 2 ;.dc Vin 1.9 2.1 1m
TEXT 232 352 Left 2 !.tran 0 0.5 1m 1m
