Version 4.1
SHEET 1 880 680
WIRE 96 -48 16 -48
WIRE 208 -48 176 -48
WIRE 16 -32 16 -48
WIRE 208 -32 208 -48
WIRE 320 48 192 48
WIRE 432 48 400 48
WIRE 16 64 16 48
WIRE 176 64 16 64
WIRE 432 80 432 48
WIRE -32 144 -64 144
WIRE 320 192 240 192
WIRE 432 192 400 192
WIRE 16 240 16 160
WIRE 432 240 432 192
WIRE 240 272 240 192
WIRE 192 288 192 48
WIRE 208 288 192 288
WIRE 368 304 272 304
WIRE 176 320 176 64
WIRE 208 320 176 320
WIRE 240 384 240 336
WIRE -64 416 -64 144
WIRE 368 416 368 304
WIRE 368 416 -64 416
FLAG 208 -32 0
FLAG 16 240 0
FLAG -64 144 VGE
FLAG 432 80 0
FLAG 432 240 0
FLAG 240 384 0
SYMBOL nmos -32 64 R0
SYMATTR InstName M1
SYMATTR Value SIJA72ADP
SYMBOL voltage 80 -48 R270
WINDOW 0 32 56 VTop 2
WINDOW 3 -32 56 VBottom 2
WINDOW 123 0 0 Left 0
WINDOW 39 0 0 Left 0
SYMATTR InstName VDD
SYMATTR Value 5
SYMBOL res 0 -48 R0
SYMATTR InstName R1
SYMATTR Value 1k
SYMBOL OpAmps\\AD824 240 240 R0
SYMATTR InstName U1
SYMBOL voltage 304 48 R270
WINDOW 0 32 56 VTop 2
WINDOW 3 -32 56 VBottom 2
WINDOW 123 0 0 Left 0
WINDOW 39 0 0 Left 0
SYMATTR InstName V1
SYMATTR Value 1
SYMBOL voltage 304 192 R270
WINDOW 0 32 56 VTop 2
WINDOW 3 -32 56 VBottom 2
WINDOW 123 0 0 Left 0
WINDOW 39 0 0 Left 0
SYMATTR InstName V2
SYMATTR Value 5
TEXT 24 328 Left 2 !.op
