Version 4.1
SHEET 1 880 680
WIRE 240 64 128 64
WIRE 288 64 240 64
WIRE 416 64 368 64
WIRE 416 80 416 64
WIRE 240 96 240 64
WIRE 128 144 128 64
WIRE 432 176 240 176
WIRE -80 256 -128 256
WIRE 128 256 128 224
WIRE 128 256 0 256
WIRE 192 256 128 256
WIRE -128 272 -128 256
WIRE 128 272 128 256
WIRE 432 288 432 176
WIRE -128 368 -128 352
WIRE 128 368 128 352
WIRE 128 368 -128 368
WIRE 240 368 240 352
WIRE 240 368 128 368
WIRE 432 368 240 368
WIRE 240 384 240 368
FLAG 416 80 0
FLAG 432 176 Vout
FLAG 240 384 0
SYMBOL nmos 192 176 R0
SYMATTR InstName M1
SYMATTR Value SIJA72ADP
SYMBOL res 112 128 R0
SYMATTR InstName R1
SYMATTR Value 1k
SYMBOL res 112 256 R0
SYMATTR InstName R2
SYMATTR Value 1k
SYMBOL res 224 80 R0
SYMATTR InstName R3
SYMATTR Value 1k
SYMBOL voltage 272 64 R270
WINDOW 123 0 0 Left 0
WINDOW 39 0 0 Left 0
SYMATTR InstName V1
SYMATTR Value 15
SYMBOL voltage -128 256 R0
WINDOW 3 18 120 Left 2
WINDOW 123 18 92 Left 2
WINDOW 39 0 0 Left 0
SYMATTR InstName V2
SYMATTR Value ""
SYMATTR Value2 AC 1m
SYMBOL res 224 256 R0
SYMATTR InstName R4
SYMATTR Value 1k
SYMBOL res 416 272 R0
SYMATTR InstName R5
SYMATTR Value 1k
SYMBOL res 16 240 R90
WINDOW 0 0 56 VBottom 2
WINDOW 3 32 56 VTop 2
SYMATTR InstName R6
SYMATTR Value 1
TEXT -48 408 Left 2 ;.op
TEXT -128 168 Left 2 !.ac dec 1000 10 1G
